<?xml version="1.0" encoding="UTF-8"?>

<!-- generated on Sat Jul 25 21:12:32 2015 by SUMO polyconvert Version 0.21.0
<?xml version="1.0" encoding="UTF-8"?>

<configuration xmlns:xsi="http://www.w3.org/2001/XMLSchema-instance" xsi:noNamespaceSchemaLocation="http://sumo-sim.org/xsd/polyconvertConfiguration.xsd">

    <input>
        <net-file value="umassdlarge.net.xml"/>
        <osm-files value="umassdlarge.osm"/>
        <type-file value="typemap.xml"/>
    </input>

    <output>
        <output-file value="umassdlarge.poly.xml"/>
    </output>

</configuration>
-->

<additional xmlns:xsi="http://www.w3.org/2001/XMLSchema-instance" xsi:noNamespaceSchemaLocation="http://sumo-sim.org/xsd/additional_file.xsd">
    <poly id="212892189" type="building" color="255,230,230" fill="1" layer="-1.00" shape="4397.98,2943.47 4389.95,2940.26 4386.82,2948.09 4403.05,2954.57 4407.25,2944.07 4399.04,2940.79 4397.98,2943.47"/>
    <poly id="212892206" type="building" color="255,230,230" fill="1" layer="-1.00" shape="4401.21,2985.22 4400.03,2988.41 4395.35,2986.69 4393.03,2992.97 4403.22,2996.74 4406.73,2987.26 4401.21,2985.22"/>
    <poly id="212892240" type="building" color="255,230,230" fill="1" layer="-1.00" shape="4399.26,3410.71 4399.21,3404.65 4397.29,3404.69 4397.10,3398.32 4399.23,3398.28 4399.15,3394.10 4392.27,3394.22 4392.46,3404.69 4388.14,3404.77 4388.42,3419.54 4397.50,3419.36 4397.29,3410.71 4399.26,3410.71"/>
    <poly id="212892241" type="building" color="255,230,230" fill="1" layer="-1.00" shape="4388.94,3344.57 4388.94,3346.59 4385.78,3346.58 4385.78,3358.14 4395.03,3358.14 4395.03,3346.65 4392.33,3346.64 4392.33,3344.57 4388.94,3344.57"/>
    <poly id="212892242" type="building" color="255,230,230" fill="1" layer="-1.00" shape="4341.71,1260.99 4343.14,1264.95 4346.18,1263.85 4351.83,1279.53 4357.97,1277.32 4354.74,1268.37 4357.57,1267.35 4353.71,1256.66 4341.71,1260.99"/>
    <poly id="212892244" type="building" color="255,230,230" fill="1" layer="-1.00" shape="4412.42,3298.91 4411.03,3280.09 4391.44,3281.54 4393.06,3303.30 4399.17,3302.85 4398.95,3299.86 4402.66,3299.59 4402.90,3302.77 4409.07,3302.31 4408.84,3299.17 4412.42,3298.91"/>
    <poly id="212892247" type="building" color="255,230,230" fill="1" layer="-1.00" shape="4390.16,3450.08 4390.27,3454.85 4394.65,3454.74 4394.53,3449.98 4390.16,3450.08"/>
    <poly id="212892252" type="building" color="255,230,230" fill="1" layer="-1.00" shape="4327.73,1299.10 4332.79,1299.14 4332.66,1312.22 4344.86,1312.33 4344.96,1301.50 4342.58,1301.48 4342.64,1295.11 4327.76,1294.98 4327.73,1299.10"/>
    <poly id="212892253" type="building" color="255,230,230" fill="1" layer="-1.00" shape="4384.69,3389.00 4389.10,3389.03 4389.20,3390.51 4392.65,3390.41 4392.39,3379.43 4394.31,3379.37 4394.02,3370.02 4387.81,3370.21 4388.08,3378.93 4384.38,3379.05 4384.69,3389.00"/>
    <poly id="212892268" type="building" color="255,230,230" fill="1" layer="-1.00" shape="4377.16,2979.72 4378.28,2976.69 4373.36,2974.87 4372.65,2976.80 4366.52,2974.53 4363.78,2981.96 4374.53,2985.93 4375.35,2983.72 4377.61,2984.55 4376.66,2987.13 4382.88,2989.43 4385.35,2982.74 4377.16,2979.72"/>
    <poly id="212892269" type="building" color="255,230,230" fill="1" layer="-1.00" shape="4387.17,3430.12 4387.47,3440.90 4386.34,3440.94 4386.50,3446.42 4396.69,3446.14 4396.24,3429.87 4387.17,3430.12"/>
    <poly id="212892277" type="building" color="255,230,230" fill="1" layer="-1.00" shape="4381.71,3476.24 4381.88,3480.27 4390.17,3479.92 4390.25,3481.99 4397.09,3481.71 4396.83,3475.61 4381.71,3476.24"/>
    <poly id="212892278" type="building" color="255,230,230" fill="1" layer="-1.00" shape="4325.94,1207.18 4332.31,1227.62 4329.37,1228.53 4331.08,1234.03 4339.85,1231.29 4338.18,1225.92 4341.13,1225.01 4334.73,1204.45 4325.94,1207.18"/>
    <poly id="212892282" type="building" color="255,230,230" fill="1" layer="-1.00" shape="4311.61,3187.77 4312.20,3197.46 4355.37,3194.82 4357.13,3223.71 4373.53,3222.71 4371.18,3184.13 4311.61,3187.77"/>
    <poly id="212892283" type="building" color="255,230,230" fill="1" layer="-1.00" shape="4365.80,2934.09 4363.03,2933.00 4363.51,2931.77 4360.04,2930.40 4357.49,2936.87 4375.89,2944.11 4378.86,2936.57 4366.71,2931.78 4365.80,2934.09"/>
    <poly id="212892326" type="building" color="255,230,230" fill="1" layer="-1.00" shape="4353.11,3279.98 4354.72,3308.49 4367.73,3307.76 4366.12,3279.25 4353.11,3279.98"/>
    <poly id="212892332" type="building" color="255,230,230" fill="1" layer="-1.00" shape="4351.40,2756.54 4357.63,2776.91 4369.83,2773.19 4363.60,2752.81 4351.40,2756.54"/>
    <poly id="212892337" type="building" color="255,230,230" fill="1" layer="-1.00" shape="4354.99,3419.71 4354.93,3424.24 4351.99,3424.21 4351.92,3429.49 4358.84,3429.57 4358.74,3437.18 4364.18,3437.26 4364.41,3419.84 4354.99,3419.71"/>
    <poly id="212892351" type="building" color="255,230,230" fill="1" layer="-1.00" shape="4352.81,3334.75 4352.78,3332.78 4345.74,3332.91 4345.91,3342.73 4351.56,3342.64 4351.53,3340.96 4360.43,3340.80 4360.32,3334.62 4352.81,3334.75"/>
    <poly id="212892353" type="building" color="255,230,230" fill="1" layer="-1.00" shape="4359.90,3354.62 4359.61,3348.57 4351.27,3348.97 4351.56,3354.94 4353.11,3354.86 4353.16,3355.95 4354.90,3355.87 4354.85,3354.86 4359.90,3354.62"/>
    <poly id="212892360" type="building" color="255,230,230" fill="1" layer="-1.00" shape="4345.99,2934.12 4347.95,2929.39 4353.41,2931.65 4356.31,2924.66 4344.41,2919.71 4343.05,2922.98 4335.73,2919.94 4331.69,2929.65 4339.02,2932.80 4338.22,2934.87 4340.59,2935.86 4342.15,2932.54 4345.99,2934.12"/>
    <poly id="212892375" type="building" color="255,230,230" fill="1" layer="-1.00" shape="4345.25,3380.35 4345.28,3383.98 4349.45,3383.94 4349.53,3393.72 4359.17,3393.64 4359.05,3380.23 4345.25,3380.35"/>
    <poly id="212892379" type="building" color="255,230,230" fill="1" layer="-1.00" shape="4335.08,2982.68 4335.09,2983.63 4331.68,2983.71 4331.75,2986.94 4337.41,2986.83 4337.32,2982.63 4335.08,2982.68"/>
    <poly id="212892385" type="building" color="255,230,230" fill="1" layer="-1.00" shape="4333.58,3391.94 4333.55,3395.15 4332.49,3395.14 4332.45,3400.25 4340.33,3400.32 4340.37,3395.46 4339.39,3395.45 4339.41,3391.98 4333.58,3391.94"/>
    <poly id="212892399" type="building" color="255,230,230" fill="1" layer="-1.00" shape="4336.12,2962.88 4326.78,2959.26 4324.86,2964.25 4346.49,2972.64 4349.94,2963.74 4337.63,2958.97 4336.12,2962.88"/>
    <poly id="212892412" type="building" color="255,230,230" fill="1" layer="-1.00" shape="4328.72,3227.20 4328.54,3221.91 4320.21,3222.19 4320.73,3237.43 4329.32,3237.14 4329.22,3234.35 4330.97,3234.29 4330.73,3227.13 4328.72,3227.20"/>
    <poly id="212892413" type="building" color="255,230,230" fill="1" layer="-1.00" shape="4429.72,3731.20 4423.51,3709.12 4409.37,3713.03 4404.28,3693.76 4366.10,3704.46 4369.64,3717.12 4352.07,3722.05 4354.02,3728.99 4331.64,3735.26 4328.13,3722.75 4307.60,3728.50 4304.24,3716.51 4295.64,3718.91 4302.04,3743.27 4308.20,3741.65 4311.09,3752.70 4304.13,3754.52 4325.27,3829.75 4332.53,3827.71 4333.24,3830.24 4316.01,3835.08 4320.78,3852.06 4321.71,3851.80 4334.90,3859.57 4429.09,3832.66 4411.75,3773.06 4425.33,3769.01 4415.58,3735.23 4429.72,3731.20"/>
    <poly id="212892434" type="building" color="255,230,230" fill="1" layer="-1.00" shape="4295.16,3223.79 4300.39,3223.91 4300.48,3219.62 4295.25,3219.50 4295.16,3223.79"/>
    <poly id="212892456" type="building" color="255,230,230" fill="1" layer="-1.00" shape="4269.11,3654.49 4266.08,3652.20 4273.94,3640.32 4284.90,3647.58 4288.21,3642.58 4277.25,3635.32 4296.72,3606.40 4299.48,3608.30 4308.62,3595.05 4318.58,3601.91 4321.76,3597.30 4311.75,3590.41 4316.34,3583.74 4313.33,3581.67 4316.73,3576.75 4292.59,3561.06 4295.07,3557.24 4299.91,3560.38 4312.96,3541.38 4291.62,3526.60 4294.94,3521.67 4290.92,3518.92 4287.17,3524.17 4283.61,3521.70 4257.19,3561.01 4258.29,3561.75 4236.50,3594.56 4234.81,3593.44 4216.77,3620.59 4221.00,3623.40 4189.70,3670.53 4200.20,3677.50 4198.52,3680.03 4206.78,3685.51 4212.36,3677.12 4214.97,3678.85 4215.68,3677.78 4238.02,3692.63 4258.22,3686.00 4261.71,3680.03 4256.49,3672.92 4269.11,3654.49"/>
    <poly id="212892466" type="building" color="255,230,230" fill="1" layer="-1.00" shape="4240.50,1235.51 4239.22,1226.93 4232.20,1227.97 4231.89,1225.90 4226.08,1226.77 4226.33,1228.39 4218.98,1229.49 4220.27,1238.13 4227.01,1237.09 4227.78,1242.27 4233.98,1241.27 4233.26,1236.48 4240.50,1235.51"/>
    <poly id="212892474" type="building" color="255,230,230" fill="1" layer="-1.00" shape="4231.16,1832.88 4233.69,1838.45 4243.17,1834.13 4240.64,1828.58 4231.16,1832.88"/>
    <poly id="212892476" type="building" color="255,230,230" fill="1" layer="-1.00" shape="4254.99,3287.42 4255.26,3293.65 4253.93,3293.71 4254.13,3298.28 4255.15,3298.23 4255.37,3303.36 4264.51,3302.96 4263.83,3287.03 4254.99,3287.42"/>
    <poly id="212892480" type="building" color="255,230,230" fill="1" layer="-1.00" shape="4262.89,3317.34 4262.99,3324.31 4261.57,3324.33 4261.63,3328.07 4263.59,3328.03 4263.66,3332.45 4273.25,3332.31 4273.03,3317.18 4262.89,3317.34"/>
    <poly id="212892483" type="building" color="255,230,230" fill="1" layer="-1.00" shape="4252.67,3031.30 4257.04,3046.47 4270.62,3042.56 4266.24,3027.39 4252.67,3031.30"/>
    <poly id="212892484" type="building" color="255,230,230" fill="1" layer="-1.00" shape="4256.20,3197.46 4256.41,3206.49 4267.99,3206.22 4267.78,3197.20 4256.20,3197.46"/>
    <poly id="212892487" type="building" color="255,230,230" fill="1" layer="-1.00" shape="4252.92,3007.34 4249.96,3007.58 4250.87,3019.12 4270.91,3017.54 4270.11,3007.40 4274.72,3007.04 4273.16,2987.22 4252.44,2988.86 4253.43,3001.41 4252.46,3001.49 4252.92,3007.34"/>
    <poly id="212892489" type="building" color="255,230,230" fill="1" layer="-1.00" shape="4253.29,3218.54 4253.59,3228.18 4282.35,3227.26 4282.03,3217.62 4253.29,3218.54"/>
    <poly id="212892491" type="building" color="255,230,230" fill="1" layer="-1.00" shape="4236.48,3033.97 4237.96,3039.63 4245.34,3037.69 4244.70,3035.25 4247.62,3034.48 4246.77,3031.27 4236.48,3033.97"/>
    <poly id="212892501" type="building" color="255,230,230" fill="1" layer="-1.00" shape="4230.35,3082.75 4231.62,3089.55 4240.01,3087.98 4238.74,3081.17 4230.35,3082.75"/>
    <poly id="212892504" type="building" color="255,230,230" fill="1" layer="-1.00" shape="4237.55,3389.85 4244.45,3391.86 4245.92,3386.81 4239.03,3384.79 4237.55,3389.85"/>
    <poly id="212892507" type="building" color="255,230,230" fill="1" layer="-1.00" shape="4244.09,3172.31 4241.44,3165.01 4236.87,3166.66 4239.51,3173.97 4234.72,3175.71 4237.95,3184.63 4248.43,3180.83 4245.20,3171.91 4244.09,3172.31"/>
    <poly id="212892509" type="building" color="255,230,230" fill="1" layer="-1.00" shape="4205.47,1246.96 4207.06,1239.63 4200.10,1238.12 4199.69,1240.01 4196.28,1239.27 4197.04,1235.76 4185.60,1233.28 4183.98,1240.77 4193.86,1242.91 4192.84,1247.65 4198.51,1248.89 4199.22,1245.62 4205.47,1246.96"/>
    <poly id="212892510" type="building" color="255,230,230" fill="1" layer="-1.00" shape="4238.72,3123.54 4236.45,3114.15 4221.73,3117.72 4222.14,3119.43 4219.04,3120.19 4220.69,3127.04 4224.37,3126.14 4224.71,3127.55 4231.39,3125.93 4232.07,3128.69 4236.97,3127.50 4236.16,3124.15 4238.72,3123.54"/>
    <poly id="212892512" type="building" color="255,230,230" fill="1" layer="-1.00" shape="4237.32,3155.05 4242.73,3153.27 4241.33,3149.01 4235.30,3151.01 4236.30,3154.04 4230.79,3155.86 4231.10,3156.79 4227.69,3157.93 4228.37,3159.98 4227.22,3160.36 4228.32,3163.71 4229.48,3163.33 4230.23,3165.61 4239.78,3162.47 4237.32,3155.05"/>
    <poly id="212892516" type="building" color="255,230,230" fill="1" layer="-1.00" shape="4223.52,3104.50 4221.18,3096.81 4213.15,3099.26 4216.40,3109.93 4225.35,3107.20 4226.44,3110.80 4234.27,3108.41 4232.26,3101.83 4223.52,3104.50"/>
    <poly id="212892527" type="building" color="255,230,230" fill="1" layer="-1.00" shape="4216.32,3352.36 4229.61,3355.80 4234.03,3338.73 4227.83,3337.12 4226.19,3343.46 4219.11,3341.62 4216.32,3352.36"/>
    <poly id="212892533" type="building" color="255,230,230" fill="1" layer="-1.00" shape="4262.41,3459.29 4245.47,3399.84 4215.68,3408.32 4216.18,3410.13 4214.48,3410.61 4226.48,3452.76 4228.27,3452.25 4244.04,3463.76 4246.05,3463.48 4251.90,3467.43 4257.01,3466.11 4251.96,3462.67 4262.41,3459.29"/>
    <poly id="212892543" type="building" color="255,230,230" fill="1" layer="-1.00" shape="4214.68,3065.32 4225.01,3062.04 4222.70,3054.77 4223.59,3054.49 4222.80,3052.01 4233.28,3048.68 4231.33,3042.51 4211.03,3048.96 4212.86,3054.71 4211.45,3055.16 4214.68,3065.32"/>
    <poly id="212892544" type="building" color="255,230,230" fill="1" layer="-1.00" shape="4206.27,2937.05 4209.85,2949.02 4218.52,2946.43 4214.94,2934.47 4206.27,2937.05"/>
    <poly id="212892550" type="building" color="255,230,230" fill="1" layer="-1.00" shape="4203.68,2979.03 4205.68,2984.07 4211.79,2981.65 4209.78,2976.61 4203.68,2979.03"/>
    <poly id="212892554" type="building" color="255,230,230" fill="1" layer="-1.00" shape="4213.57,2852.39 4214.96,2842.94 4212.95,2842.64 4213.21,2840.81 4211.18,2840.50 4211.45,2838.71 4199.72,2836.99 4199.06,2841.45 4202.88,2842.02 4201.61,2850.63 4213.57,2852.39"/>
    <poly id="212892567" type="building" color="255,230,230" fill="1" layer="-1.00" shape="4197.92,2959.12 4198.91,2962.31 4204.09,2960.70 4203.09,2957.51 4197.92,2959.12"/>
    <poly id="212892571" type="building" color="255,230,230" fill="1" layer="-1.00" shape="4196.37,3210.77 4196.77,3223.14 4203.68,3222.91 4203.28,3210.56 4196.37,3210.77"/>
    <poly id="212892576" type="building" color="255,230,230" fill="1" layer="-1.00" shape="4192.24,3002.42 4187.29,3004.17 4187.85,3005.76 4186.08,3006.39 4190.28,3018.24 4199.10,3015.11 4197.32,3010.11 4194.11,3011.25 4192.41,3006.47 4193.53,3006.08 4192.24,3002.42"/>
    <poly id="212892580" type="building" color="255,230,230" fill="1" layer="-1.00" shape="4185.59,2963.30 4187.32,2967.55 4196.69,2963.76 4194.97,2959.50 4185.59,2963.30"/>
    <poly id="212892582" type="building" color="255,230,230" fill="1" layer="-1.00" shape="4186.77,3135.56 4188.96,3143.57 4202.81,3139.78 4200.63,3131.78 4186.77,3135.56"/>
    <poly id="212892587" type="building" color="255,230,230" fill="1" layer="-1.00" shape="4178.79,2969.45 4179.19,2970.53 4172.22,2973.11 4174.66,2979.71 4186.77,2975.23 4183.93,2967.54 4178.79,2969.45"/>
    <poly id="212892589" type="building" color="255,230,230" fill="1" layer="-1.00" shape="4149.77,1230.18 4150.11,1232.94 4146.51,1233.35 4146.42,1232.10 4138.64,1233.05 4139.52,1240.75 4162.65,1237.95 4161.53,1228.74 4149.77,1230.18"/>
    <poly id="212892594" type="building" color="255,230,230" fill="1" layer="-1.00" shape="4176.73,2988.30 4179.80,2995.79 4191.30,2991.07 4188.23,2983.58 4176.73,2988.30"/>
    <poly id="212892602" type="building" color="255,230,230" fill="1" layer="-1.00" shape="4166.47,3210.61 4166.99,3218.03 4176.88,3217.33 4176.36,3209.91 4166.47,3210.61"/>
    <poly id="212892603" type="building" color="255,230,230" fill="1" layer="-1.00" shape="4164.49,2895.87 4169.26,2896.16 4169.44,2893.20 4164.67,2892.91 4164.49,2895.87"/>
    <poly id="212892612" type="building" color="255,230,230" fill="1" layer="-1.00" shape="4165.23,2875.39 4164.15,2878.61 4162.67,2878.12 4161.72,2880.93 4165.31,2882.13 4167.34,2876.10 4165.23,2875.39"/>
    <poly id="212892621" type="building" color="255,230,230" fill="1" layer="-1.00" shape="4166.03,3096.47 4168.27,3105.33 4179.65,3102.46 4177.41,3093.60 4166.03,3096.47"/>
    <poly id="212892632" type="building" color="255,230,230" fill="1" layer="-1.00" shape="4162.62,2918.66 4165.97,2924.14 4171.50,2920.77 4168.15,2915.28 4162.62,2918.66"/>
    <poly id="212892641" type="building" color="255,230,230" fill="1" layer="-1.00" shape="4150.97,3564.68 4156.28,3568.29 4169.03,3549.56 4163.73,3545.95 4150.97,3564.68"/>
    <poly id="212892660" type="building" color="255,230,230" fill="1" layer="-1.00" shape="4152.07,2930.41 4150.11,2927.68 4146.90,2929.61 4148.56,2932.53 4146.52,2933.85 4152.27,2942.88 4160.81,2937.44 4155.06,2928.40 4152.07,2930.41"/>
    <poly id="212892662" type="building" color="255,230,230" fill="1" layer="-1.00" shape="4144.06,3095.57 4145.54,3103.41 4150.72,3102.42 4149.24,3094.59 4144.06,3095.57"/>
    <poly id="212892664" type="building" color="255,230,230" fill="1" layer="-1.00" shape="4122.68,3338.67 4106.07,3332.59 4099.15,3351.49 4116.04,3357.66 4114.46,3361.97 4143.03,3372.42 4153.21,3344.58 4124.37,3334.03 4122.68,3338.67"/>
    <poly id="212892667" type="building" color="255,230,230" fill="1" layer="-1.00" shape="4140.61,3035.11 4142.42,3040.93 4130.21,3044.72 4132.57,3052.31 4145.20,3048.38 4144.46,3045.99 4153.47,3043.19 4150.05,3032.18 4140.61,3035.11"/>
    <poly id="212892677" type="building" color="255,230,230" fill="1" layer="-1.00" shape="4140.10,2896.95 4139.26,2897.70 4143.27,2902.16 4148.02,2897.89 4144.02,2893.46 4142.02,2895.28 4137.88,2890.68 4134.04,2894.14 4131.69,2891.52 4123.00,2899.34 4127.32,2904.14 4137.95,2894.56 4140.10,2896.95"/>
    <poly id="212892680" type="building" color="255,230,230" fill="1" layer="-1.00" shape="4136.57,2776.17 4131.12,2776.17 4129.56,2765.66 4120.47,2766.70 4122.94,2786.43 4121.92,2786.56 4118.52,2793.57 4127.09,2797.07 4130.88,2787.81 4130.79,2785.26 4134.36,2785.26 4134.36,2780.20 4136.57,2780.20 4136.57,2776.17"/>
    <poly id="212892742" type="building" color="255,230,230" fill="1" layer="-1.00" shape="4140.01,3067.98 4138.64,3062.70 4120.09,3067.50 4126.59,3092.63 4145.44,3087.75 4143.40,3079.82 4150.56,3077.97 4147.48,3066.04 4140.01,3067.98"/>
    <poly id="212892744" type="building" color="255,230,230" fill="1" layer="-1.00" shape="4115.19,3034.35 4117.26,3039.43 4122.90,3037.13 4120.83,3032.05 4115.19,3034.35"/>
    <poly id="212892748" type="building" color="255,230,230" fill="1" layer="-1.00" shape="4106.56,2835.32 4102.02,2829.45 4107.38,2825.31 4102.46,2818.94 4096.12,2823.83 4098.54,2826.96 4095.86,2829.03 4094.72,2827.56 4090.98,2830.45 4094.40,2834.88 4088.98,2839.06 4094.18,2845.78 4099.31,2841.82 4099.92,2842.58 4105.66,2838.14 4104.63,2836.81 4106.56,2835.32"/>
    <poly id="212892749" type="building" color="255,230,230" fill="1" layer="-1.00" shape="4102.31,2863.55 4106.49,2869.34 4114.57,2863.47 4110.39,2857.70 4102.31,2863.55"/>
    <poly id="212892751" type="building" color="255,230,230" fill="1" layer="-1.00" shape="4068.17,1213.60 4062.89,1221.32 4075.67,1230.07 4075.15,1230.83 4081.68,1235.48 4086.03,1229.13 4080.07,1224.88 4079.50,1225.71 4076.83,1223.89 4078.86,1220.92 4068.17,1213.60"/>
    <poly id="212892777" type="building" color="255,230,230" fill="1" layer="-1.00" shape="4080.70,2729.85 4085.68,2736.29 4094.24,2729.67 4089.26,2723.22 4080.70,2729.85"/>
    <poly id="212892791" type="building" color="255,230,230" fill="1" layer="-1.00" shape="4106.62,3680.23 4107.43,3684.12 4112.44,3683.09 4111.63,3679.20 4106.62,3680.23"/>
    <poly id="212892793" type="building" color="255,230,230" fill="1" layer="-1.00" shape="4091.28,3200.19 4093.56,3203.09 4097.58,3199.93 4095.30,3197.02 4091.28,3200.19"/>
    <poly id="212892797" type="building" color="255,230,230" fill="1" layer="-1.00" shape="4091.24,3213.02 4094.13,3236.42 4119.72,3233.27 4116.83,3209.85 4091.24,3213.02"/>
    <poly id="212892798" type="building" color="255,230,230" fill="1" layer="-1.00" shape="4090.77,2920.68 4090.42,2917.93 4085.14,2918.47 4085.52,2921.51 4070.99,2923.38 4072.99,2938.16 4079.42,2937.29 4078.58,2931.03 4081.55,2930.63 4082.77,2939.61 4093.18,2938.21 4092.21,2931.11 4093.44,2930.93 4092.03,2920.52 4090.77,2920.68"/>
    <poly id="212892804" type="building" color="255,230,230" fill="1" layer="-1.00" shape="4160.90,3708.86 4161.68,3712.18 4198.94,3703.48 4198.38,3701.08 4172.82,3679.33 4096.20,3697.24 4096.48,3698.40 4094.00,3698.98 4099.66,3723.17 4143.06,3713.09 4143.87,3716.14 4147.95,3714.99 4147.37,3712.11 4160.90,3708.86"/>
    <poly id="212892824" type="building" color="255,230,230" fill="1" layer="-1.00" shape="4071.38,2891.46 4067.36,2886.88 4068.10,2886.23 4062.36,2879.66 4053.90,2887.06 4058.11,2891.86 4055.62,2894.04 4058.47,2897.29 4061.42,2894.71 4065.51,2899.39 4062.55,2901.96 4066.49,2906.46 4073.57,2900.27 4068.26,2894.20 4071.38,2891.46"/>
    <poly id="212892825" type="building" color="255,230,230" fill="1" layer="-1.00" shape="4064.63,2781.26 4066.75,2784.51 4071.36,2781.50 4069.25,2778.26 4064.63,2781.26"/>
    <poly id="212892829" type="building" color="255,230,230" fill="1" layer="-1.00" shape="4072.80,3220.46 4045.14,3226.39 4047.43,3237.09 4048.59,3236.84 4049.57,3241.43 4076.07,3235.76 4072.80,3220.46"/>
    <poly id="212892830" type="building" color="255,230,230" fill="1" layer="-1.00" shape="4072.02,2816.33 4066.80,2810.22 4060.81,2815.34 4075.28,2832.27 4081.15,2827.26 4079.11,2824.88 4080.41,2823.76 4073.21,2815.31 4072.02,2816.33"/>
    <poly id="212892855" type="building" color="255,230,230" fill="1" layer="-1.00" shape="4053.74,2787.82 4047.31,2793.90 4051.31,2798.13 4057.78,2791.85 4057.87,2789.38 4056.37,2787.72 4053.74,2787.82"/>
    <poly id="212892865" type="building" color="255,230,230" fill="1" layer="-1.00" shape="4034.10,2798.12 4032.69,2799.35 4036.49,2803.71 4046.00,2795.40 4042.29,2791.15 4043.49,2790.12 4041.49,2787.84 4040.30,2788.88 4039.32,2787.76 4031.23,2794.83 4034.10,2798.12"/>
    <poly id="212892885" type="building" color="255,230,230" fill="1" layer="-1.00" shape="4028.43,2857.62 4023.09,2852.68 4027.50,2847.92 4023.08,2843.82 4018.26,2849.04 4017.05,2847.94 4009.39,2856.22 4013.33,2859.85 4016.71,2856.19 4029.62,2868.11 4035.07,2862.21 4029.21,2856.78 4028.43,2857.62"/>
    <poly id="212892890" type="building" color="255,230,230" fill="1" layer="-1.00" shape="4040.90,3238.64 4037.99,3217.12 4022.66,3219.19 4025.51,3240.35 4023.93,3240.57 4024.62,3245.67 4043.30,3243.15 4042.66,3238.40 4040.90,3238.64"/>
    <poly id="212892904" type="building" color="255,230,230" fill="1" layer="-1.00" shape="4016.46,2757.13 4018.54,2760.35 4024.61,2756.40 4022.53,2753.20 4016.46,2757.13"/>
    <poly id="212892908" type="building" color="255,230,230" fill="1" layer="-1.00" shape="4014.26,2930.87 4013.94,2929.69 4012.51,2929.95 4012.76,2931.23 4011.77,2931.40 4013.76,2941.80 4026.38,2939.39 4024.40,2928.98 4014.26,2930.87"/>
    <poly id="212892912" type="building" color="255,230,230" fill="1" layer="-1.00" shape="4017.62,2910.49 4021.10,2913.13 4023.98,2909.34 4020.49,2906.70 4017.62,2910.49"/>
    <poly id="212892917" type="building" color="255,230,230" fill="1" layer="-1.00" shape="4001.11,2739.03 4002.05,2742.94 4008.58,2741.36 4007.64,2737.45 4001.11,2739.03"/>
    <poly id="212892920" type="building" color="255,230,230" fill="1" layer="-1.00" shape="4018.34,2783.85 4024.99,2779.54 4022.13,2775.12 4017.93,2777.85 4015.32,2773.82 4017.51,2772.41 4014.42,2767.65 4008.68,2771.37 4011.28,2775.37 4007.88,2777.57 4013.02,2785.52 4017.53,2782.59 4018.34,2783.85"/>
    <poly id="212892928" type="building" color="255,230,230" fill="1" layer="-1.00" shape="3996.24,2930.07 3998.81,2944.30 4007.33,2942.75 4004.74,2928.53 3996.24,2930.07"/>
    <poly id="212892934" type="building" color="255,230,230" fill="1" layer="-1.00" shape="3995.09,2751.62 3994.29,2750.60 3987.66,2755.79 3993.03,2762.63 3999.64,2757.44 3996.70,2753.68 3997.79,2752.82 3996.17,2750.76 3995.09,2751.62"/>
    <poly id="212892944" type="building" color="255,230,230" fill="1" layer="-1.00" shape="4000.58,2869.77 3997.27,2873.52 3994.47,2871.06 3986.90,2879.67 3996.30,2887.95 4003.40,2879.88 4000.83,2877.62 4004.62,2873.32 4000.58,2869.77"/>
    <poly id="212892946" type="building" color="255,230,230" fill="1" layer="-1.00" shape="4025.83,3614.80 4014.83,3612.82 4010.35,3633.81 4043.64,3640.42 4047.96,3619.38 4037.61,3617.26 4038.00,3615.38 4026.20,3612.96 4025.83,3614.80"/>
    <poly id="212892949" type="building" color="255,230,230" fill="1" layer="-1.00" shape="4031.80,3713.67 4026.47,3712.42 4027.15,3709.53 4010.51,3705.63 4008.49,3714.23 4012.76,3715.23 4011.69,3719.82 4019.71,3721.70 4020.75,3717.28 4023.93,3718.03 4022.80,3722.88 4028.80,3724.29 4029.23,3722.47 4033.83,3723.55 4035.54,3716.27 4031.42,3715.30 4031.80,3713.67"/>
    <poly id="212892950" type="building" color="255,230,230" fill="1" layer="-1.00" shape="3992.69,2964.32 3993.25,2968.69 4002.73,2967.49 4002.18,2963.11 3992.69,2964.32"/>
    <poly id="212892951" type="building" color="255,230,230" fill="1" layer="-1.00" shape="3981.76,2936.57 3983.26,2942.15 3989.13,2940.58 3990.66,2946.29 3995.91,2944.88 3992.87,2933.58 3981.76,2936.57"/>
    <poly id="212892952" type="building" color="255,230,230" fill="1" layer="-1.00" shape="3973.33,2816.34 3981.19,2822.90 3980.31,2823.96 3987.59,2830.03 3991.94,2824.81 3985.12,2819.12 3986.76,2817.16 3978.44,2810.22 3973.33,2816.34"/>
    <poly id="212892962" type="building" color="255,230,230" fill="1" layer="-1.00" shape="3979.55,2898.47 3983.32,2904.06 3989.86,2899.64 3986.09,2894.05 3979.55,2898.47"/>
    <poly id="212892964" type="building" color="255,230,230" fill="1" layer="-1.00" shape="3738.55,3605.30 3781.76,3600.24 3778.03,3573.73 3800.34,3570.97 3804.64,3605.69 3809.73,3605.06 3805.43,3570.35 3811.89,3569.54 3816.36,3604.66 3868.01,3598.35 3864.01,3567.65 3869.83,3566.89 3869.08,3561.19 3863.27,3561.94 3860.67,3541.94 3888.94,3538.26 3892.65,3566.76 3908.19,3564.74 3910.60,3583.27 3946.28,3578.62 3945.94,3575.99 3949.78,3575.49 3946.82,3552.75 3943.63,3553.17 3938.67,3515.12 3999.31,3507.22 3995.29,3476.35 4040.74,3471.08 4037.22,3440.73 4055.35,3438.62 4051.64,3406.58 3932.91,3421.95 3933.14,3423.71 3912.02,3426.02 3911.10,3417.61 3897.48,3419.10 3897.85,3422.48 3869.11,3425.64 3872.23,3454.15 3839.37,3458.04 3836.39,3431.01 3790.20,3437.79 3794.07,3464.20 3748.59,3469.52 3745.78,3444.16 3717.83,3447.48 3717.20,3442.14 3703.62,3443.76 3704.09,3447.70 3675.19,3451.14 3680.21,3493.29 3661.75,3495.49 3661.61,3494.25 3642.00,3496.58 3642.25,3498.72 3604.38,3503.79 3604.05,3501.34 3584.35,3503.78 3584.51,3505.03 3574.77,3506.25 3582.39,3567.84 3587.91,3567.15 3589.50,3580.00 3597.23,3579.05 3595.63,3566.11 3610.27,3564.30 3610.12,3563.06 3650.03,3558.13 3650.33,3560.51 3670.02,3558.07 3669.83,3556.48 3688.57,3554.16 3690.81,3572.23 3706.21,3570.32 3707.80,3583.12 3680.65,3587.16 3683.17,3607.02 3673.78,3608.22 3676.33,3628.20 3689.11,3626.57 3689.95,3633.16 3680.77,3634.33 3684.60,3656.02 3722.37,3651.21 3720.67,3637.93 3722.98,3637.63 3722.35,3632.69 3728.90,3623.72 3734.36,3622.98 3733.33,3613.79 3739.29,3613.10 3738.55,3605.30"/>
    <poly id="212892996" type="building" color="255,230,230" fill="1" layer="-1.00" shape="3969.29,2844.87 3972.33,2840.82 3966.78,2836.65 3953.70,2854.10 3961.29,2859.80 3969.07,2849.43 3966.18,2847.27 3968.45,2844.24 3969.29,2844.87"/>
    <poly id="212893002" type="building" color="255,230,230" fill="1" layer="-1.00" shape="3976.01,3214.19 3978.66,3236.61 4010.57,3232.42 4007.93,3209.93 3976.01,3214.19"/>
    <poly id="212893003" type="building" color="255,230,230" fill="1" layer="-1.00" shape="3978.76,3690.37 3984.74,3692.74 3985.94,3689.69 3979.96,3687.34 3978.76,3690.37"/>
    <poly id="212893004" type="building" color="255,230,230" fill="1" layer="-1.00" shape="3977.32,2899.60 3978.69,2898.88 3975.47,2892.65 3964.40,2898.36 3967.66,2904.68 3969.29,2903.84 3970.07,2905.35 3978.14,2901.19 3977.32,2899.60"/>
    <poly id="212893005" type="building" color="255,230,230" fill="1" layer="-1.00" shape="3959.35,2793.51 3952.76,2801.66 3954.83,2803.33 3955.45,2802.56 3963.15,2808.79 3969.12,2801.42 3959.35,2793.51"/>
    <poly id="212893008" type="building" color="255,230,230" fill="1" layer="-1.00" shape="3963.85,2917.78 3964.46,2922.09 3969.74,2921.35 3969.13,2917.04 3963.85,2917.78"/>
    <poly id="212893009" type="building" color="255,230,230" fill="1" layer="-1.00" shape="3958.48,2731.44 3961.24,2734.09 3959.81,2735.58 3966.66,2742.14 3972.12,2736.44 3962.52,2727.23 3958.48,2731.44"/>
    <poly id="212893011" type="building" color="255,230,230" fill="1" layer="-1.00" shape="3971.44,3247.94 3970.81,3242.21 3969.69,3242.33 3968.22,3228.72 3956.48,3229.99 3957.97,3243.76 3959.01,3243.66 3959.59,3248.97 3960.60,3248.86 3961.13,3253.69 3970.90,3252.63 3970.40,3248.05 3971.44,3247.94"/>
    <poly id="212893016" type="building" color="255,230,230" fill="1" layer="-1.00" shape="3978.77,3723.79 3988.27,3726.09 3990.92,3715.17 3981.41,3712.86 3978.77,3723.79"/>
    <poly id="212893072" type="building" color="255,230,230" fill="1" layer="-1.00" shape="3936.70,2799.50 3941.90,2804.08 3946.94,2798.35 3941.75,2793.77 3936.70,2799.50"/>
    <poly id="212893076" type="building" color="255,230,230" fill="1" layer="-1.00" shape="3931.10,2824.95 3926.06,2819.88 3920.52,2825.38 3925.25,2830.15 3926.25,2829.16 3929.22,2832.16 3926.64,2834.71 3929.34,2837.43 3928.16,2838.60 3930.31,2840.76 3931.47,2839.60 3934.58,2842.74 3941.68,2835.70 3934.50,2828.48 3933.79,2829.18 3930.33,2825.71 3931.10,2824.95"/>
    <poly id="212893087" type="building" color="255,230,230" fill="1" layer="-1.00" shape="3922.00,2772.90 3931.46,2780.38 3936.84,2773.58 3927.38,2766.10 3922.00,2772.90"/>
    <poly id="212893100" type="building" color="255,230,230" fill="1" layer="-1.00" shape="3942.89,3722.74 3950.70,3724.11 3951.25,3721.01 3943.44,3719.64 3942.89,3722.74"/>
    <poly id="212893105" type="building" color="255,230,230" fill="1" layer="-1.00" shape="3929.38,2923.68 3929.66,2927.19 3933.98,2926.85 3933.69,2923.33 3929.38,2923.68"/>
    <poly id="212893112" type="building" color="255,230,230" fill="1" layer="-1.00" shape="3938.59,2904.56 3938.34,2900.99 3924.09,2902.00 3924.70,2910.48 3938.85,2909.46 3938.66,2906.83 3940.08,2906.73 3939.92,2904.46 3938.59,2904.56"/>