<?xml version="1.0" encoding="UTF-8"?>

<!-- generated on Sat Jul 25 21:10:39 2015 by SUMO netconvert Version 0.21.0
<?xml version="1.0" encoding="UTF-8"?>

<configuration xmlns:xsi="http://www.w3.org/2001/XMLSchema-instance" xsi:noNamespaceSchemaLocation="http://sumo-sim.org/xsd/netconvertConfiguration.xsd">

    <input>
        <osm-files value="umassdlarge.osm"/>
    </input>

    <output>
        <output-file value="umassdlarge.net.xml"/>
    </output>

    <projection>
        <proj.utm value="true"/>
    </projection>

</configuration>
-->

<net version="0.13" xmlns:xsi="http://www.w3.org/2001/XMLSchema-instance" xsi:noNamespaceSchemaLocation="http://sumo-sim.org/xsd/net_file.xsd">

    <location netOffset="-330337.26,-4608403.69" convBoundary="0.00,0.00,4569.29,4842.39" origBoundary="-71.036637,41.609904,-70.981912,41.653606" projParameter="+proj=utm +zone=19 +ellps=WGS84 +datum=WGS84 +units=m +no_defs"/>

    <edge id=":1562067492_0" function="internal">
        <lane id=":1562067492_0_0" index="0" speed="20.83" length="5.01" shape="1569.56,2002.34 1568.25,2001.94 1567.13,2002.05 1566.19,2002.68 1565.43,2003.83"/>
    </edge>
    <edge id=":1562067492_1" function="internal">
        <lane id=":1562067492_1_0" index="0" speed="27.78" length="9.50" shape="1569.56,2002.34 1560.97,1998.29"/>
    </edge>
    <edge id=":1562067492_2" function="internal">
        <lane id=":1562067492_2_0" index="0" speed="27.78" length="2.41" shape="1569.56,2002.34 1568.80,2001.07 1568.78,2000.15"/>
    </edge>
    <edge id=":1562067492_9" function="internal">
        <lane id=":1562067492_9_0" index="0" speed="27.78" length="2.41" shape="1568.78,2000.15 1569.50,1999.58 1570.97,1999.36"/>
    </edge>
    <edge id=":1562067492_3" function="internal">
        <lane id=":1562067492_3_0" index="0" speed="27.78" length="9.50" shape="1562.38,1995.30 1570.97,1999.36"/>
    </edge>
    <edge id=":1562067492_4" function="internal">
        <lane id=":1562067492_4_0" index="0" speed="20.83" length="7.14" shape="1562.38,1995.30 1564.74,1996.86 1566.04,1998.80 1566.23,2000.77"/>
    </edge>
    <edge id=":1562067492_5" function="internal">
        <lane id=":1562067492_5_0" index="0" speed="27.78" length="2.41" shape="1562.38,1995.30 1563.15,1996.58 1563.17,1997.50"/>
    </edge>
    <edge id=":1562067492_10" function="internal">
        <lane id=":1562067492_10_0" index="0" speed="20.83" length="3.19" shape="1566.23,2000.77 1566.27,2001.13 1565.43,2003.83"/>
    </edge>
    <edge id=":1562067492_11" function="internal">
        <lane id=":1562067492_11_0" index="0" speed="27.78" length="2.41" shape="1563.17,1997.50 1562.44,1998.07 1560.97,1998.29"/>
    </edge>
    <edge id=":1562067492_6" function="internal">
        <lane id=":1562067492_6_0" index="0" speed="20.83" length="5.00" shape="1562.45,2002.42 1562.86,2001.11 1562.74,1999.98 1562.12,1999.04 1560.97,1998.29"/>
    </edge>
    <edge id=":1562067492_7" function="internal">
        <lane id=":1562067492_7_0" index="0" speed="20.83" length="10.32" shape="1562.45,2002.42 1564.01,2000.06 1565.95,1998.76 1568.27,1998.53 1570.97,1999.36"/>
    </edge>
    <edge id=":1562067492_8" function="internal">
        <lane id=":1562067492_8_0" index="0" speed="13.89" length="4.82" shape="1562.45,2002.42 1563.72,2001.65 1564.65,2001.63 1565.22,2002.36 1565.43,2003.83"/>
    </edge>
    <edge id=":1562067495_0" function="internal">
        <lane id=":1562067495_0_0" index="0" speed="13.89" length="7.06" shape="1534.89,2089.10 1528.01,2087.52"/>
    </edge>
    <edge id=":1562067495_1" function="internal">
        <lane id=":1562067495_1_0" index="0" speed="13.89" length="9.42" shape="1534.89,2089.10 1532.80,2087.69 1531.52,2085.91 1531.05,2083.78 1531.39,2081.28"/>
    </edge>
    <edge id=":1562067495_2" function="internal">
        <lane id=":1562067495_2_0" index="0" speed="13.89" length="2.41" shape="1534.89,2089.10 1534.15,2087.81 1534.14,2086.89"/>
    </edge>
    <edge id=":1562067495_9" function="internal">
        <lane id=":1562067495_9_0" index="0" speed="13.89" length="2.41" shape="1534.14,2086.89 1534.87,2086.33 1536.35,2086.13"/>
    </edge>
    <edge id=":1562067495_3" function="internal">
        <lane id=":1562067495_3_0" index="0" speed="13.89" length="4.79" shape="1534.57,2082.16 1534.40,2083.43 1534.63,2084.52 1535.29,2085.42 1536.35,2086.13"/>
    </edge>
    <edge id=":1562067495_4" function="internal">
        <lane id=":1562067495_4_0" index="0" speed="13.89" length="5.10" shape="1534.57,2082.16 1533.61,2084.45 1532.20,2086.11 1531.82,2086.32"/>
    </edge>
    <edge id=":1562067495_5" function="internal">
        <lane id=":1562067495_5_0" index="0" speed="13.89" length="2.41" shape="1534.57,2082.16 1533.44,2083.13 1532.54,2083.31"/>
    </edge>
    <edge id=":1562067495_10" function="internal">
        <lane id=":1562067495_10_0" index="0" speed="13.89" length="4.05" shape="1531.82,2086.32 1530.33,2087.13 1528.01,2087.52"/>
    </edge>
    <edge id=":1562067495_11" function="internal">
        <lane id=":1562067495_11_0" index="0" speed="13.89" length="2.41" shape="1532.54,2083.31 1531.85,2082.69 1531.39,2081.28"/>
    </edge>
    <edge id=":1562067495_6" function="internal">
        <lane id=":1562067495_6_0" index="0" speed="13.89" length="4.92" shape="1527.91,2084.23 1529.13,2084.01 1530.12,2083.45 1530.87,2082.54 1531.39,2081.28"/>
    </edge>
    <edge id=":1562067495_7" function="internal">
        <lane id=":1562067495_7_0" index="0" speed="13.89" length="8.65" shape="1527.91,2084.23 1536.35,2086.13"/>
    </edge>
    <edge id=":1562067495_8" function="internal">
        <lane id=":1562067495_8_0" index="0" speed="13.89" length="4.82" shape="1527.91,2084.23 1529.17,2085.01 1529.61,2085.83 1529.22,2086.66 1528.01,2087.52"/>
    </edge>
    <edge id=":1562067498_0" function="internal">
        <lane id=":1562067498_0_0" index="0" speed="13.89" length="0.59" shape="1535.77,2089.65 1535.30,2089.30"/>
    </edge>
    <edge id=":1562067498_1" function="internal">
        <lane id=":1562067498_1_0" index="0" speed="13.89" length="2.41" shape="1535.77,2089.65 1535.55,2088.18 1535.88,2087.32"/>
    </edge>
    <edge id=":1562067498_4" function="internal">
        <lane id=":1562067498_4_0" index="0" speed="13.89" length="2.41" shape="1535.88,2087.32 1536.76,2087.07 1538.21,2087.42"/>
    </edge>
    <edge id=":1562067498_2" function="internal">
        <lane id=":1562067498_2_0" index="0" speed="13.89" length="1.82" shape="1536.76,2086.33 1538.21,2087.42"/>
    </edge>
    <edge id=":1562067498_3" function="internal">
        <lane id=":1562067498_3_0" index="0" speed="13.89" length="2.41" shape="1536.76,2086.33 1537.50,2087.62 1537.51,2088.54"/>
    </edge>
    <edge id=":1562067498_5" function="internal">
        <lane id=":1562067498_5_0" index="0" speed="13.89" length="2.41" shape="1537.51,2088.54 1536.77,2089.10 1535.30,2089.30"/>
    </edge>
    <edge id=":3153592770_0" function="internal">
        <lane id=":3153592770_0_0" index="0" allow="delivery" speed="5.56" length="4.82" shape="4225.72,1810.34 4224.25,1810.10 4223.54,1809.53 4223.57,1808.60 4224.35,1807.34"/>
    </edge>
    <edge id=":65603029_0" function="internal">
        <lane id=":65603029_0_0" index="0" speed="20.83" length="5.25" shape="3602.20,2710.68 3601.90,2709.23 3601.21,2708.32 3600.13,2707.95 3598.65,2708.12"/>
    </edge>
    <edge id=":65603029_1" function="internal">
        <lane id=":65603029_1_0" index="0" speed="20.83" length="10.38" shape="3602.20,2710.68 3602.34,2707.64 3603.15,2705.23 3604.65,2703.45 3606.84,2702.32"/>
    </edge>
    <edge id=":65603029_2" function="internal">
        <lane id=":65603029_2_0" index="0" speed="13.89" length="4.82" shape="3602.20,2710.68 3602.95,2709.40 3603.75,2708.94 3604.60,2709.30 3605.50,2710.48"/>
    </edge>
    <edge id=":65603029_3" function="internal">
        <lane id=":65603029_3_0" index="0" speed="20.83" length="5.99" shape="3607.85,2705.46 3606.72,2706.09 3605.96,2707.14 3605.55,2708.60 3605.50,2710.48"/>
    </edge>
    <edge id=":65603029_4" function="internal">
        <lane id=":65603029_4_0" index="0" speed="27.78" length="9.57" shape="3607.85,2705.46 3598.65,2708.12"/>
    </edge>
    <edge id=":65603029_5" function="internal">
        <lane id=":65603029_5_0" index="0" speed="27.78" length="2.41" shape="3607.85,2705.46 3606.42,2705.05 3605.77,2704.39"/>
    </edge>
    <edge id=":65603029_9" function="internal">
        <lane id=":65603029_9_0" index="0" speed="27.78" length="2.41" shape="3605.77,2704.39 3605.91,2703.48 3606.84,2702.32"/>
    </edge>
    <edge id=":65603029_6" function="internal">
        <lane id=":65603029_6_0" index="0" speed="27.78" length="9.40" shape="3597.81,2704.93 3606.84,2702.32"/>
    </edge>
    <edge id=":65603029_7" function="internal">
        <lane id=":65603029_7_0" index="0" speed="20.83" length="7.13" shape="3597.81,2704.93 3601.00,2704.56 3603.34,2705.36 3604.21,2706.51"/>
    </edge>
    <edge id=":65603029_8" function="internal">
        <lane id=":65603029_8_0" index="0" speed="27.78" length="2.41" shape="3597.81,2704.93 3599.22,2705.41 3599.83,2706.11"/>
    </edge>
    <edge id=":65603029_10" function="internal">
        <lane id=":65603029_10_0" index="0" speed="20.83" length="4.25" shape="3604.21,2706.51 3604.84,2707.34 3605.50,2710.48"/>
    </edge>
    <edge id=":65603029_11" function="internal">
        <lane id=":65603029_11_0" index="0" speed="27.78" length="2.41" shape="3599.83,2706.11 3599.64,2707.01 3598.65,2708.12"/>
    </edge>
    <edge id=":65603403_0" function="internal">
        <lane id=":65603403_0_0" index="0" speed="13.89" length="4.97" shape="3630.11,3350.19 3629.77,3348.87 3629.10,3347.97 3628.08,3347.48 3626.73,3347.41"/>
    </edge>
    <edge id=":65603403_1" function="internal">
        <lane id=":65603403_1_0" index="0" speed="13.89" length="10.05" shape="3630.11,3350.19 3630.18,3347.42 3631.07,3345.28 3632.78,3343.76 3635.30,3342.86"/>
    </edge>
    <edge id=":65603403_2" function="internal">
        <lane id=":65603403_2_0" index="0" speed="13.89" length="4.82" shape="3630.11,3350.19 3630.80,3348.87 3631.57,3348.37 3632.44,3348.68 3633.39,3349.82"/>
    </edge>
    <edge id=":65603403_3" function="internal">
        <lane id=":65603403_3_0" index="0" speed="13.89" length="5.06" shape="3635.95,3346.10 3634.70,3346.55 3633.86,3347.32 3633.42,3348.41 3633.39,3349.82"/>
    </edge>
    <edge id=":65603403_4" function="internal">
        <lane id=":65603403_4_0" index="0" speed="13.89" length="9.32" shape="3635.95,3346.10 3626.73,3347.41"/>
    </edge>
    <edge id=":65603403_5" function="internal">
        <lane id=":65603403_5_0" index="0" speed="13.89" length="2.41" shape="3635.95,3346.10 3634.58,3345.53 3634.01,3344.81"/>
    </edge>
    <edge id=":65603403_9" function="internal">
        <lane id=":65603403_9_0" index="0" speed="13.89" length="2.41" shape="3634.01,3344.81 3634.25,3343.92 3635.30,3342.86"/>
    </edge>
    <edge id=":65603403_6" function="internal">
        <lane id=":65603403_6_0" index="0" speed="13.89" length="8.95" shape="3626.44,3344.12 3635.30,3342.86"/>
    </edge>
    <edge id=":65603403_7" function="internal">
        <lane id=":65603403_7_0" index="0" speed="13.89" length="6.77" shape="3626.44,3344.12 3629.22,3344.27 3631.31,3345.28 3632.32,3346.62"/>
    </edge>
    <edge id=":65603403_8" function="internal">
        <lane id=":65603403_8_0" index="0" speed="13.89" length="2.41" shape="3626.44,3344.12 3627.75,3344.84 3628.23,3345.62"/>
    </edge>
    <edge id=":65603403_10" function="internal">
        <lane id=":65603403_10_0" index="0" speed="13.89" length="3.42" shape="3632.32,3346.62 3632.70,3347.13 3633.39,3349.82"/>
    </edge>
    <edge id=":65603403_11" function="internal">
        <lane id=":65603403_11_0" index="0" speed="13.89" length="2.41" shape="3628.23,3345.62 3627.89,3346.48 3626.73,3347.41"/>
    </edge>
    <edge id=":65603670_0" function="internal">
        <lane id=":65603670_0_0" index="0" speed="13.89" length="27.13" shape="3342.11,1409.90 3316.23,1418.04"/>
    </edge>
    <edge id=":65603670_1" function="internal">
        <lane id=":65603670_1_0" index="0" speed="13.89" length="22.47" shape="3342.11,1409.90 3340.30,1411.02 3331.73,1413.36 3322.95,1415.14 3320.52,1414.57"/>
    </edge>
    <edge id=":65603670_2" function="internal">
        <lane id=":65603670_2_0" index="0" speed="13.89" length="24.68" shape="3342.11,1409.90 3357.24,1408.10 3365.93,1411.79"/>
    </edge>
    <edge id=":65603670_9" function="internal">
        <lane id=":65603670_9_0" index="0" speed="13.89" length="24.68" shape="3365.93,1411.79 3368.20,1420.96 3364.04,1435.61"/>
    </edge>
    <edge id=":65603670_3" function="internal">
        <lane id=":65603670_3_0" index="0" speed="13.89" length="44.46" shape="3324.22,1415.84 3364.04,1435.61"/>
    </edge>
    <edge id=":65603670_4" function="internal">
        <lane id=":65603670_4_0" index="0" speed="13.89" length="8.29" shape="3324.22,1415.84 3316.23,1418.04"/>
    </edge>
    <edge id=":65603670_5" function="internal">
        <lane id=":65603670_5_0" index="0" speed="13.89" length="5.71" shape="3324.22,1415.84 3322.82,1416.91 3321.74,1417.06 3320.97,1416.28 3320.52,1414.57"/>
    </edge>
    <edge id=":65603670_6" function="internal">
        <lane id=":65603670_6_0" index="0" speed="13.89" length="3.23" shape="3317.30,1414.78 3320.52,1414.57"/>
    </edge>
    <edge id=":65603670_7" function="internal">
        <lane id=":65603670_7_0" index="0" speed="13.89" length="51.17" shape="3317.30,1414.78 3364.04,1435.61"/>
    </edge>
    <edge id=":65603670_8" function="internal">
        <lane id=":65603670_8_0" index="0" speed="13.89" length="3.36" shape="3317.30,1414.78 3318.26,1416.00 3318.40,1416.94 3317.80,1417.55"/>
    </edge>
    <edge id=":65603670_10" function="internal">
        <lane id=":65603670_10_0" index="0" speed="13.89" length="1.65" shape="3317.80,1417.55 3317.72,1417.63 3316.23,1418.04"/>
    </edge>
    <edge id=":65604158_0" function="internal">
        <lane id=":65604158_0_0" index="0" speed="13.89" length="4.82" shape="4326.02,2943.49 4325.16,2942.28 4325.07,2941.36 4325.74,2940.74 4327.19,2940.40"/>
    </edge>
    <edge id=":65604194_0" function="internal">
        <lane id=":65604194_0_0" index="0" speed="13.89" length="6.03" shape="3566.36,3211.09 3564.72,3210.94 3563.38,3211.31 3562.33,3212.21 3561.57,3213.62"/>
    </edge>
    <edge id=":65604194_1" function="internal">
        <lane id=":65604194_1_0" index="0" speed="13.89" length="10.22" shape="3566.36,3211.09 3563.44,3210.41 3561.39,3209.92 3559.35,3209.39 3556.45,3208.61"/>
    </edge>
    <edge id=":65604194_2" function="internal">
        <lane id=":65604194_2_0" index="0" speed="13.89" length="7.25" shape="3566.36,3211.09 3563.53,3209.99 3561.84,3208.27 3561.43,3206.52"/>
    </edge>
    <edge id=":65604194_3" function="internal">
        <lane id=":65604194_3_0" index="0" speed="13.89" length="2.41" shape="3566.36,3211.09 3565.34,3210.01 3565.13,3209.11"/>
    </edge>
    <edge id=":65604194_16" function="internal">
        <lane id=":65604194_16_0" index="0" speed="13.89" length="3.65" shape="3561.43,3206.52 3561.29,3205.92 3561.87,3202.94"/>
    </edge>
    <edge id=":65604194_17" function="internal">
        <lane id=":65604194_17_0" index="0" speed="13.89" length="2.41" shape="3565.13,3209.11 3565.71,3208.40 3567.10,3207.88"/>
    </edge>
    <edge id=":65604194_4" function="internal">
        <lane id=":65604194_4_0" index="0" speed="13.89" length="5.14" shape="3564.99,3204.03 3564.71,3205.44 3564.97,3206.55 3565.77,3207.36 3567.10,3207.88"/>
    </edge>
    <edge id=":65604194_5" function="internal">
        <lane id=":65604194_5_0" index="0" speed="13.89" length="10.18" shape="3564.99,3204.03 3564.00,3206.86 3563.30,3208.84 3562.59,3210.80 3561.57,3213.62"/>
    </edge>
    <edge id=":65604194_6" function="internal">
        <lane id=":65604194_6_0" index="0" speed="13.89" length="10.88" shape="3564.99,3204.03 3563.63,3206.68 3561.75,3208.32 3559.36,3208.97 3556.45,3208.61"/>
    </edge>
    <edge id=":65604194_7" function="internal">
        <lane id=":65604194_7_0" index="0" speed="13.89" length="4.82" shape="3564.99,3204.03 3563.80,3204.93 3562.88,3205.05 3562.24,3204.38 3561.87,3202.94"/>
    </edge>
    <edge id=":65604194_8" function="internal">
        <lane id=":65604194_8_0" index="0" speed="13.89" length="5.83" shape="3557.31,3205.42 3558.86,3205.61 3560.14,3205.26 3561.14,3204.37 3561.87,3202.94"/>
    </edge>
    <edge id=":65604194_9" function="internal">
        <lane id=":65604194_9_0" index="0" speed="13.89" length="10.10" shape="3557.31,3205.42 3560.19,3206.20 3562.19,3206.72 3564.20,3207.20 3567.10,3207.88"/>
    </edge>
    <edge id=":65604194_10" function="internal">
        <lane id=":65604194_10_0" index="0" speed="13.89" length="7.13" shape="3557.31,3205.42 3560.05,3206.60 3561.67,3208.36 3562.04,3210.08"/>
    </edge>
    <edge id=":65604194_11" function="internal">
        <lane id=":65604194_11_0" index="0" speed="13.89" length="2.41" shape="3557.31,3205.42 3558.29,3206.54 3558.47,3207.45"/>
    </edge>
    <edge id=":65604194_18" function="internal">
        <lane id=":65604194_18_0" index="0" speed="13.89" length="3.62" shape="3562.04,3210.08 3562.18,3210.70 3561.57,3213.62"/>
    </edge>
    <edge id=":65604194_19" function="internal">
        <lane id=":65604194_19_0" index="0" speed="13.89" length="2.41" shape="3558.47,3207.45 3557.86,3208.13 3556.45,3208.61"/>
    </edge>
    <edge id=":65604194_12" function="internal">
        <lane id=":65604194_12_0" index="0" speed="13.89" length="5.10" shape="3558.47,3212.50 3558.76,3211.11 3558.52,3210.00 3557.75,3209.17 3556.45,3208.61"/>
    </edge>
    <edge id=":65604194_13" function="internal">
        <lane id=":65604194_13_0" index="0" speed="13.89" length="10.14" shape="3558.47,3212.50 3559.49,3209.69 3560.19,3207.73 3560.88,3205.77 3561.87,3202.94"/>
    </edge>
    <edge id=":65604194_14" function="internal">
        <lane id=":65604194_14_0" index="0" speed="13.89" length="10.89" shape="3558.47,3212.50 3559.84,3209.92 3561.73,3208.29 3564.16,3207.61 3567.10,3207.88"/>
    </edge>
    <edge id=":65604194_15" function="internal">
        <lane id=":65604194_15_0" index="0" speed="13.89" length="4.82" shape="3558.47,3212.50 3559.67,3211.62 3560.58,3211.51 3561.22,3212.18 3561.57,3213.62"/>
    </edge>
    <edge id=":65604294_0" function="internal">
        <lane id=":65604294_0_0" index="0" speed="20.83" length="5.33" shape="3291.83,3349.73 3291.85,3351.25 3292.37,3352.28 3293.39,3352.80 3294.91,3352.84"/>
    </edge>
    <edge id=":65604294_1" function="internal">
        <lane id=":65604294_1_0" index="0" speed="13.89" length="11.12" shape="3291.83,3349.73 3291.42,3352.85 3291.12,3355.25 3290.88,3357.65 3290.65,3360.79"/>
    </edge>
    <edge id=":65604294_2" function="internal">
        <lane id=":65604294_2_0" index="0" speed="13.89" length="4.82" shape="3291.83,3349.73 3290.86,3350.86 3289.99,3351.16 3289.22,3350.64 3288.56,3349.31"/>
    </edge>
    <edge id=":65604294_3" function="internal">
        <lane id=":65604294_3_0" index="0" speed="20.83" length="7.43" shape="3283.80,3354.21 3285.67,3353.70 3287.09,3352.72 3288.05,3351.26 3288.56,3349.31"/>
    </edge>
    <edge id=":65604294_4" function="internal">
        <lane id=":65604294_4_0" index="0" speed="27.78" length="11.19" shape="3283.80,3354.21 3287.10,3353.80 3289.35,3353.52 3291.61,3353.24 3294.91,3352.84"/>
        <lane id=":65604294_4_1" index="1" speed="27.78" length="11.19" shape="3284.21,3357.48 3287.50,3357.07 3289.76,3356.79 3292.01,3356.51 3295.31,3356.11"/>
    </edge>
    <edge id=":65604294_6" function="internal">
        <lane id=":65604294_6_0" index="0" speed="20.83" length="8.46" shape="3284.21,3357.48 3287.13,3357.37 3289.18,3357.89 3290.35,3359.03 3290.65,3360.79"/>
    </edge>
    <edge id=":65604294_7" function="internal">
        <lane id=":65604294_7_0" index="0" speed="13.89" length="11.27" shape="3287.36,3360.51 3287.60,3357.35 3287.84,3354.90 3288.15,3352.45 3288.56,3349.31"/>
    </edge>
    <edge id=":65604294_8" function="internal">
        <lane id=":65604294_8_0" index="0" speed="20.83" length="9.73" shape="3287.36,3360.51 3287.94,3358.94 3289.46,3357.68 3291.92,3356.74 3295.31,3356.11"/>
    </edge>
    <edge id=":65604294_9" function="internal">
        <lane id=":65604294_9_0" index="0" speed="13.89" length="4.82" shape="3287.36,3360.51 3288.29,3359.35 3289.14,3359.00 3289.93,3359.48 3290.65,3360.79"/>
    </edge>
    <edge id=":65606044_0" function="internal">
        <lane id=":65606044_0_0" index="0" speed="22.22" length="9.50" shape="3788.62,2453.28 3785.36,2444.36"/>
    </edge>
    <edge id=":65606044_1" function="internal">
        <lane id=":65606044_1_0" index="0" speed="18.06" length="6.93" shape="3788.62,2453.28 3788.12,2450.61 3788.61,2448.34 3789.79,2446.86"/>
    </edge>
    <edge id=":65606044_2" function="internal">
        <lane id=":65606044_2_0" index="0" speed="22.22" length="2.41" shape="3788.62,2453.28 3788.99,2451.84 3789.63,2451.18"/>
    </edge>
    <edge id=":65606044_9" function="internal">
        <lane id=":65606044_9_0" index="0" speed="18.06" length="3.41" shape="3789.79,2446.86 3790.11,2446.46 3792.60,2444.98"/>
    </edge>
    <edge id=":65606044_10" function="internal">
        <lane id=":65606044_10_0" index="0" speed="22.22" length="2.41" shape="3789.63,2451.18 3790.55,2451.30 3791.74,2452.19"/>
    </edge>
    <edge id=":65606044_3" function="internal">
        <lane id=":65606044_3_0" index="0" speed="18.06" length="5.28" shape="3793.90,2448.01 3792.58,2448.78 3791.78,2449.73 3791.50,2450.87 3791.74,2452.19"/>
    </edge>
    <edge id=":65606044_4" function="internal">
        <lane id=":65606044_4_0" index="0" speed="18.06" length="10.54" shape="3793.90,2448.01 3791.21,2448.71 3788.89,2448.33 3786.94,2446.88 3785.36,2444.36"/>
    </edge>
    <edge id=":65606044_5" function="internal">
        <lane id=":65606044_5_0" index="0" speed="13.89" length="4.82" shape="3793.90,2448.01 3792.44,2447.74 3791.74,2447.15 3791.79,2446.23 3792.60,2444.98"/>
    </edge>
    <edge id=":65606044_6" function="internal">
        <lane id=":65606044_6_0" index="0" speed="18.06" length="5.07" shape="3788.48,2443.26 3789.23,2444.46 3790.17,2445.15 3791.30,2445.32 3792.60,2444.98"/>
    </edge>
    <edge id=":65606044_7" function="internal">
        <lane id=":65606044_7_0" index="0" speed="22.22" length="9.51" shape="3788.48,2443.26 3791.74,2452.19"/>
    </edge>
    <edge id=":65606044_8" function="internal">
        <lane id=":65606044_8_0" index="0" speed="22.22" length="2.41" shape="3788.48,2443.26 3788.11,2444.70 3787.46,2445.37"/>
    </edge>
    <edge id=":65606044_11" function="internal">
        <lane id=":65606044_11_0" index="0" speed="22.22" length="2.41" shape="3787.46,2445.37 3786.55,2445.25 3785.36,2444.36"/>
    </edge>
    <edge id=":65608520_0" function="internal">
        <lane id=":65608520_0_0" index="0" speed="13.89" length="4.82" shape="3065.34,3827.06 3064.23,3828.05 3063.32,3828.24 3062.63,3827.63 3062.15,3826.22"/>
    </edge>
    <edge id=":65609587_0" function="internal">
        <lane id=":65609587_0_0" index="0" speed="18.06" length="5.12" shape="2549.68,3579.54 2548.25,3579.55 2547.22,3580.01 2546.57,3580.95 2546.30,3582.34"/>
    </edge>
    <edge id=":65609587_1" function="internal">
        <lane id=":65609587_1_0" index="0" speed="13.89" length="9.67" shape="2549.68,3579.54 2540.05,3578.66"/>
    </edge>
    <edge id=":65609587_2" function="internal">
        <lane id=":65609587_2_0" index="0" speed="18.06" length="10.61" shape="2549.68,3579.54 2546.82,3578.73 2544.91,3577.24 2543.97,3575.07 2543.98,3572.21"/>
    </edge>
    <edge id=":65609587_3" function="internal">
        <lane id=":65609587_3_0" index="0" speed="13.89" length="4.82" shape="2549.68,3579.54 2548.57,3578.55 2548.27,3577.68 2548.80,3576.92 2550.14,3576.28"/>
    </edge>
    <edge id=":65609587_4" function="internal">
        <lane id=":65609587_4_0" index="0" speed="18.06" length="5.25" shape="2547.24,3572.72 2547.24,3574.09 2547.73,3575.15 2548.69,3575.87 2550.14,3576.28"/>
    </edge>
    <edge id=":65609587_5" function="internal">
        <lane id=":65609587_5_0" index="0" speed="22.22" length="9.67" shape="2547.24,3572.72 2546.30,3582.34"/>
    </edge>
    <edge id=":65609587_6" function="internal">
        <lane id=":65609587_6_0" index="0" speed="18.06" length="7.16" shape="2547.24,3572.72 2546.43,3575.41 2544.97,3577.30 2543.22,3578.19"/>
    </edge>
    <edge id=":65609587_7" function="internal">
        <lane id=":65609587_7_0" index="0" speed="22.22" length="2.41" shape="2547.24,3572.72 2546.24,3573.81 2545.36,3574.10"/>
    </edge>
    <edge id=":65609587_16" function="internal">
        <lane id=":65609587_16_0" index="0" speed="18.06" length="3.23" shape="2543.22,3578.19 2542.84,3578.38 2540.05,3578.66"/>
    </edge>
    <edge id=":65609587_17" function="internal">
        <lane id=":65609587_17_0" index="0" speed="22.22" length="2.41" shape="2545.36,3574.10 2544.61,3573.56 2543.98,3572.21"/>
    </edge>
    <edge id=":65609587_8" function="internal">
        <lane id=":65609587_8_0" index="0" speed="18.06" length="5.49" shape="2540.18,3575.36 2541.65,3575.21 2542.78,3574.64 2543.55,3573.64 2543.98,3572.21"/>
    </edge>
    <edge id=":65609587_9" function="internal">
        <lane id=":65609587_9_0" index="0" speed="13.89" length="10.00" shape="2540.18,3575.36 2550.14,3576.28"/>
    </edge>
    <edge id=":65609587_10" function="internal">
        <lane id=":65609587_10_0" index="0" speed="18.06" length="10.60" shape="2540.18,3575.36 2542.97,3575.89 2544.92,3577.23 2546.03,3579.38 2546.30,3582.34"/>
    </edge>
    <edge id=":65609587_11" function="internal">
        <lane id=":65609587_11_0" index="0" speed="13.89" length="4.82" shape="2540.18,3575.36 2541.39,3576.23 2541.76,3577.08 2541.32,3577.88 2540.05,3578.66"/>
    </edge>
    <edge id=":65609587_12" function="internal">
        <lane id=":65609587_12_0" index="0" speed="18.06" length="5.25" shape="2543.00,3582.19 2542.88,3580.69 2542.34,3579.60 2541.40,3578.93 2540.05,3578.66"/>
    </edge>
    <edge id=":65609587_13" function="internal">
        <lane id=":65609587_13_0" index="0" speed="22.22" length="10.03" shape="2543.00,3582.19 2543.14,3579.22 2543.29,3577.18 2543.54,3575.16 2543.98,3572.21"/>
    </edge>
    <edge id=":65609587_14" function="internal">
        <lane id=":65609587_14_0" index="0" speed="18.06" length="7.53" shape="2543.00,3582.19 2543.57,3579.24 2544.94,3577.27 2546.88,3576.40"/>
    </edge>
    <edge id=":65609587_15" function="internal">
        <lane id=":65609587_15_0" index="0" speed="22.22" length="2.41" shape="2543.00,3582.19 2543.88,3580.99 2544.73,3580.62"/>
    </edge>
    <edge id=":65609587_18" function="internal">
        <lane id=":65609587_18_0" index="0" speed="18.06" length="3.28" shape="2546.88,3576.40 2547.13,3576.28 2550.14,3576.28"/>
    </edge>
    <edge id=":65609587_19" function="internal">
        <lane id=":65609587_19_0" index="0" speed="22.22" length="2.41" shape="2544.73,3580.62 2545.53,3581.07 2546.30,3582.34"/>
    </edge>
    <edge id=":65609608_0" function="internal">
        <lane id=":65609608_0_0" index="0" speed="13.89" length="20.39" shape="3822.10,3354.63 3821.52,3350.07 3820.79,3344.52 3820.05,3338.97 3819.42,3334.42"/>
    </edge>
    <edge id=":65609608_1" function="internal">
        <lane id=":65609608_1_0" index="0" speed="13.89" length="20.96" shape="3822.10,3354.63 3822.30,3350.01 3823.48,3344.35 3825.07,3338.73 3826.56,3334.26"/>
    </edge>
    <edge id=":65609608_2" function="internal">
        <lane id=":65609608_2_0" index="0" speed="13.89" length="2.41" shape="3822.10,3354.63 3822.77,3353.30 3823.53,3352.79"/>
    </edge>
    <edge id=":65609608_9" function="internal">
        <lane id=":65609608_9_0" index="0" speed="13.89" length="2.41" shape="3823.53,3352.79 3824.40,3353.10 3825.37,3354.22"/>
    </edge>
    <edge id=":65609608_3" function="internal">
        <lane id=":65609608_3_0" index="0" speed="13.89" length="19.82" shape="3829.78,3335.01 3828.30,3339.31 3826.72,3344.52 3825.57,3349.79 3825.37,3354.22"/>
    </edge>
    <edge id=":65609608_4" function="internal">
        <lane id=":65609608_4_0" index="0" speed="13.89" length="24.20" shape="3829.78,3335.01 3826.37,3342.80 3823.51,3345.29 3821.19,3342.50 3819.42,3334.42"/>
    </edge>
    <edge id=":65609608_5" function="internal">
        <lane id=":65609608_5_0" index="0" speed="13.89" length="4.83" shape="3829.78,3335.01 3828.69,3336.03 3827.79,3336.24 3827.08,3335.65 3826.56,3334.26"/>
    </edge>
    <edge id=":65609608_6" function="internal">
        <lane id=":65609608_6_0" index="0" speed="13.89" length="9.03" shape="3822.70,3334.01 3823.36,3337.03 3824.22,3338.08 3825.29,3337.15 3826.56,3334.26"/>
    </edge>
    <edge id=":65609608_7" function="internal">
        <lane id=":65609608_7_0" index="0" speed="13.89" length="20.39" shape="3822.70,3334.01 3823.32,3338.56 3824.07,3344.11 3824.79,3349.67 3825.37,3354.22"/>
    </edge>
    <edge id=":65609608_8" function="internal">
        <lane id=":65609608_8_0" index="0" speed="13.89" length="2.41" shape="3822.70,3334.01 3822.03,3335.34 3821.26,3335.85"/>
    </edge>
    <edge id=":65609608_10" function="internal">
        <lane id=":65609608_10_0" index="0" speed="13.89" length="2.41" shape="3821.26,3335.85 3820.39,3335.54 3819.42,3334.42"/>
    </edge>
    <edge id=":65610966_0" function="internal">
        <lane id=":65610966_0_0" index="0" speed="13.89" length="9.20" shape="1367.55,3552.81 1366.71,3561.97"/>
    </edge>
    <edge id=":65610966_1" function="internal">
        <lane id=":65610966_1_0" index="0" speed="13.89" length="6.92" shape="1367.55,3552.81 1366.83,3555.48 1365.43,3557.31 1363.76,3558.10"/>
    </edge>