<?xml version="1.0" encoding="UTF-8"?>

<configuration xmlns:xsi="http://www.w3.org/2001/XMLSchema-instance" xsi:noNamespaceSchemaLocation="http://sumo.sf.net/xsd/sumoConfiguration.xsd">

    <input>
        <net-file value="umassdlarge.net.xml"/>
        <route-files value="umassdlarge.rou.xml"/>
	<additional-files value="umassdlarge.poly.xml"/>
    </input>

    <time>
        <begin value="0"/>
        <end value="3600"/>
	<step-length values="0.1"/>
    </time>
</configuration>
